# DIS package for MODFLOW-NWT generated by Flopy 3.10.0
         5         1        47       175         4         2
  0  0  0  0  0
CONSTANT    1.200000E+00                           #delr                          
CONSTANT    1.000000E+00                           #delc                          
INTERNAL               1  (47E15.6) -1 #model_top                     
   6.860850E+02   6.859400E+02   6.857750E+02   6.856200E+02   6.855150E+02   6.854300E+02   6.853600E+02   6.852700E+02   6.851600E+02   6.850650E+02   6.849550E+02   6.847850E+02   6.846150E+02   6.844750E+02   6.843800E+02   6.842300E+02   6.840250E+02   6.838550E+02   6.836500E+02   6.834250E+02   6.831750E+02   6.828850E+02   6.826400E+02   6.824150E+02   6.821800E+02   6.818950E+02   6.815650E+02   6.812250E+02   6.808950E+02   6.805850E+02   6.802800E+02   6.800000E+02   6.797350E+02   6.794400E+02   6.791300E+02   6.788700E+02   6.785800E+02   6.782550E+02   6.779650E+02   6.777000E+02   6.774600E+02   6.772350E+02   6.769900E+02   6.767200E+02   6.764450E+02   6.762350E+02   6.760500E+02
INTERNAL               1  (47E15.6) -1 #botm layer 1                  
   6.859850E+02   6.858400E+02   6.856750E+02   6.855200E+02   6.854150E+02   6.853300E+02   6.852600E+02   6.851700E+02   6.850600E+02   6.849650E+02   6.848550E+02   6.846850E+02   6.845150E+02   6.843750E+02   6.842800E+02   6.841300E+02   6.839250E+02   6.837550E+02   6.835500E+02   6.833250E+02   6.830750E+02   6.827850E+02   6.825400E+02   6.823150E+02   6.820800E+02   6.817950E+02   6.814650E+02   6.811250E+02   6.807950E+02   6.804850E+02   6.801800E+02   6.799000E+02   6.796350E+02   6.793400E+02   6.790300E+02   6.787700E+02   6.784800E+02   6.781550E+02   6.778650E+02   6.776000E+02   6.773600E+02   6.771350E+02   6.768900E+02   6.766200E+02   6.763450E+02   6.761350E+02   6.759500E+02
INTERNAL               1  (47E15.6) -1 #botm layer 2                  
   6.857850E+02   6.856400E+02   6.854750E+02   6.853200E+02   6.852150E+02   6.851300E+02   6.850600E+02   6.849700E+02   6.848600E+02   6.847650E+02   6.846550E+02   6.844850E+02   6.843150E+02   6.841750E+02   6.840800E+02   6.839300E+02   6.837250E+02   6.835550E+02   6.833500E+02   6.831250E+02   6.828750E+02   6.825850E+02   6.823400E+02   6.821150E+02   6.818800E+02   6.815950E+02   6.812650E+02   6.809250E+02   6.805950E+02   6.802850E+02   6.799800E+02   6.797000E+02   6.794350E+02   6.791400E+02   6.788300E+02   6.785700E+02   6.782800E+02   6.779550E+02   6.776650E+02   6.774000E+02   6.771600E+02   6.769350E+02   6.766900E+02   6.764200E+02   6.761450E+02   6.759350E+02   6.757500E+02
INTERNAL               1  (47E15.6) -1 #botm layer 3                  
   6.855850E+02   6.854400E+02   6.852750E+02   6.851200E+02   6.850150E+02   6.849300E+02   6.848600E+02   6.847700E+02   6.846600E+02   6.845650E+02   6.844550E+02   6.842850E+02   6.841150E+02   6.839750E+02   6.838800E+02   6.837300E+02   6.835250E+02   6.833550E+02   6.831500E+02   6.829250E+02   6.826750E+02   6.823850E+02   6.821400E+02   6.819150E+02   6.816800E+02   6.813950E+02   6.810650E+02   6.807250E+02   6.803950E+02   6.800850E+02   6.797800E+02   6.795000E+02   6.792350E+02   6.789400E+02   6.786300E+02   6.783700E+02   6.780800E+02   6.777550E+02   6.774650E+02   6.772000E+02   6.769600E+02   6.767350E+02   6.764900E+02   6.762200E+02   6.759450E+02   6.757350E+02   6.755500E+02
INTERNAL               1  (47E15.6) -1 #botm layer 4                  
   6.851850E+02   6.850400E+02   6.848750E+02   6.847200E+02   6.846150E+02   6.845300E+02   6.844600E+02   6.843700E+02   6.842600E+02   6.841650E+02   6.840550E+02   6.838850E+02   6.837150E+02   6.835750E+02   6.834800E+02   6.833300E+02   6.831250E+02   6.829550E+02   6.827500E+02   6.825250E+02   6.822750E+02   6.819850E+02   6.817400E+02   6.815150E+02   6.812800E+02   6.809950E+02   6.806650E+02   6.803250E+02   6.799950E+02   6.796850E+02   6.793800E+02   6.791000E+02   6.788350E+02   6.785400E+02   6.782300E+02   6.779700E+02   6.776800E+02   6.773550E+02   6.770650E+02   6.768000E+02   6.765600E+02   6.763350E+02   6.760900E+02   6.758200E+02   6.755450E+02   6.753350E+02   6.751500E+02
INTERNAL               1  (47E15.6) -1 #botm layer 5                  
   6.820850E+02   6.819400E+02   6.817750E+02   6.816200E+02   6.815150E+02   6.814300E+02   6.813600E+02   6.812700E+02   6.811600E+02   6.810650E+02   6.809550E+02   6.807850E+02   6.806150E+02   6.804750E+02   6.803800E+02   6.802300E+02   6.800250E+02   6.798550E+02   6.796500E+02   6.794250E+02   6.791750E+02   6.788850E+02   6.786400E+02   6.784150E+02   6.781800E+02   6.778950E+02   6.775650E+02   6.772250E+02   6.768950E+02   6.765850E+02   6.762800E+02   6.760000E+02   6.757350E+02   6.754400E+02   6.751300E+02   6.748700E+02   6.745800E+02   6.742550E+02   6.739650E+02   6.737000E+02   6.734600E+02   6.732350E+02   6.729900E+02   6.727200E+02   6.724450E+02   6.722350E+02   6.720500E+02
      1.000000             1  1.000000  SS
      1.000000             1  1.000000  TR
      1.000000             1  1.000000  TR
      1.000000             1  1.000000  TR
      1.000000             1  1.000000  TR
      1.000000             1  1.000000  TR
      1.000000             1  1.000000  TR
      1.000000             1  1.000000  TR
      1.000000             1  1.000000  TR
      1.000000             1  1.000000  TR
      1.000000             1  1.000000  TR
      1.000000             1  1.000000  TR
      1.000000             1  1.000000  TR
      1.000000             1  1.000000  TR
      1.000000             1  1.000000  TR
      1.000000             1  1.000000  TR
      1.000000             1  1.000000  TR
      1.000000             1  1.000000  TR
      1.000000             1  1.000000  TR
      1.000000             1  1.000000  TR
      1.000000             1  1.000000  TR
      1.000000             1  1.000000  TR
      1.000000             1  1.000000  TR
      1.000000             1  1.000000  TR
      1.000000             1  1.000000  TR
      1.000000             1  1.000000  TR
      1.000000             1  1.000000  TR
      1.000000             1  1.000000  TR
      1.000000             1  1.000000  TR
      1.000000             1  1.000000  TR
      1.000000             1  1.000000  TR
      1.000000             1  1.000000  TR
      1.000000             1  1.000000  TR
      1.000000             1  1.000000  TR
      1.000000             1  1.000000  TR
      1.000000             1  1.000000  TR
      1.000000             1  1.000000  TR
      1.000000             1  1.000000  TR
      1.000000             1  1.000000  TR
      1.000000             1  1.000000  TR
      1.000000             1  1.000000  TR
      1.000000             1  1.000000  TR
      1.000000             1  1.000000  TR
      1.000000             1  1.000000  TR
      1.000000             1  1.000000  TR
      1.000000             1  1.000000  TR
      1.000000             1  1.000000  TR
      1.000000             1  1.000000  TR
      1.000000             1  1.000000  TR
      1.000000             1  1.000000  TR
      1.000000             1  1.000000  TR
      1.000000             1  1.000000  TR
      1.000000             1  1.000000  TR
      1.000000             1  1.000000  TR
      1.000000             1  1.000000  TR
      1.000000             1  1.000000  TR
      1.000000             1  1.000000  TR
      1.000000             1  1.000000  TR
      1.000000             1  1.000000  TR
      1.000000             1  1.000000  TR
      1.000000             1  1.000000  TR
      1.000000             1  1.000000  TR
      1.000000             1  1.000000  TR
      1.000000             1  1.000000  TR
      1.000000             1  1.000000  TR
      1.000000             1  1.000000  TR
      1.000000             1  1.000000  TR
      1.000000             1  1.000000  TR
      1.000000             1  1.000000  TR
      1.000000             1  1.000000  TR
      1.000000             1  1.000000  TR
      1.000000             1  1.000000  TR
      1.000000             1  1.000000  TR
      1.000000             1  1.000000  TR
      1.000000             1  1.000000  TR
      1.000000             1  1.000000  TR
      1.000000             1  1.000000  TR
      1.000000             1  1.000000  TR
      1.000000             1  1.000000  TR
      1.000000             1  1.000000  TR
      1.000000             1  1.000000  TR
      1.000000             1  1.000000  TR
      1.000000             1  1.000000  TR
      1.000000             1  1.000000  TR
      1.000000             1  1.000000  TR
      1.000000             1  1.000000  TR
      1.000000             1  1.000000  TR
      1.000000             1  1.000000  TR
      1.000000             1  1.000000  TR
      1.000000             1  1.000000  TR
      1.000000             1  1.000000  TR
      1.000000             1  1.000000  TR
      1.000000             1  1.000000  TR
      1.000000             1  1.000000  TR
      1.000000             1  1.000000  TR
      1.000000             1  1.000000  TR
      1.000000             1  1.000000  TR
      1.000000             1  1.000000  TR
      1.000000             1  1.000000  TR
      1.000000             1  1.000000  TR
      1.000000             1  1.000000  TR
      1.000000             1  1.000000  TR
      1.000000             1  1.000000  TR
      1.000000             1  1.000000  TR
      1.000000             1  1.000000  TR
      1.000000             1  1.000000  TR
      1.000000             1  1.000000  TR
      1.000000             1  1.000000  TR
      1.000000             1  1.000000  TR
      1.000000             1  1.000000  TR
      1.000000             1  1.000000  TR
      1.000000             1  1.000000  TR
      1.000000             1  1.000000  TR
      1.000000             1  1.000000  TR
      1.000000             1  1.000000  TR
      1.000000             1  1.000000  TR
      1.000000             1  1.000000  TR
      1.000000             1  1.000000  TR
      1.000000             1  1.000000  TR
      1.000000             1  1.000000  TR
      1.000000             1  1.000000  TR
      1.000000             1  1.000000  TR
      1.000000             1  1.000000  TR
      1.000000             1  1.000000  TR
      1.000000             1  1.000000  TR
      1.000000             1  1.000000  TR
      1.000000             1  1.000000  TR
      1.000000             1  1.000000  TR
      1.000000             1  1.000000  TR
      1.000000             1  1.000000  TR
      1.000000             1  1.000000  TR
      1.000000             1  1.000000  TR
      1.000000             1  1.000000  TR
      1.000000             1  1.000000  TR
      1.000000             1  1.000000  TR
      1.000000             1  1.000000  TR
      1.000000             1  1.000000  TR
      1.000000             1  1.000000  TR
      1.000000             1  1.000000  TR
      1.000000             1  1.000000  TR
      1.000000             1  1.000000  TR
      1.000000             1  1.000000  TR
      1.000000             1  1.000000  TR
      1.000000             1  1.000000  TR
      1.000000             1  1.000000  TR
      1.000000             1  1.000000  TR
      1.000000             1  1.000000  TR
      1.000000             1  1.000000  TR
      1.000000             1  1.000000  TR
      1.000000             1  1.000000  TR
      1.000000             1  1.000000  TR
      1.000000             1  1.000000  TR
      1.000000             1  1.000000  TR
      1.000000             1  1.000000  TR
      1.000000             1  1.000000  TR
      1.000000             1  1.000000  TR
      1.000000             1  1.000000  TR
      1.000000             1  1.000000  TR
      1.000000             1  1.000000  TR
      1.000000             1  1.000000  TR
      1.000000             1  1.000000  TR
      1.000000             1  1.000000  TR
      1.000000             1  1.000000  TR
      1.000000             1  1.000000  TR
      1.000000             1  1.000000  TR
      1.000000             1  1.000000  TR
      1.000000             1  1.000000  TR
      1.000000             1  1.000000  TR
      1.000000             1  1.000000  TR
      1.000000             1  1.000000  TR
      1.000000             1  1.000000  TR
      1.000000             1  1.000000  TR
      1.000000             1  1.000000  TR
      1.000000             1  1.000000  TR
      1.000000             1  1.000000  TR
