# OC package for MODFLOW-NWT generated by Flopy 3.10.0
HEAD PRINT FORMAT   0
HEAD SAVE UNIT    51
DRAWDOWN PRINT FORMAT   0
COMPACT BUDGET AUX

period 1 step 1 
  save head
  save budget

period 2 step 1 
  save head
  save budget

period 3 step 1 
  save head
  save budget

period 4 step 1 
  save head
  save budget

period 5 step 1 
  save head
  save budget

period 6 step 1 
  save head
  save budget

period 7 step 1 
  save head
  save budget

period 8 step 1 
  save head
  save budget

period 9 step 1 
  save head
  save budget

period 10 step 1 
  save head
  save budget

period 11 step 1 
  save head
  save budget

period 12 step 1 
  save head
  save budget

period 13 step 1 
  save head
  save budget

period 14 step 1 
  save head
  save budget

period 15 step 1 
  save head
  save budget

period 16 step 1 
  save head
  save budget

period 17 step 1 
  save head
  save budget

period 18 step 1 
  save head
  save budget

period 19 step 1 
  save head
  save budget

period 20 step 1 
  save head
  save budget

period 21 step 1 
  save head
  save budget

period 22 step 1 
  save head
  save budget

period 23 step 1 
  save head
  save budget

period 24 step 1 
  save head
  save budget

period 25 step 1 
  save head
  save budget

period 26 step 1 
  save head
  save budget

period 27 step 1 
  save head
  save budget

period 28 step 1 
  save head
  save budget

period 29 step 1 
  save head
  save budget

period 30 step 1 
  save head
  save budget

period 31 step 1 
  save head
  save budget

period 32 step 1 
  save head
  save budget

period 33 step 1 
  save head
  save budget

period 34 step 1 
  save head
  save budget

period 35 step 1 
  save head
  save budget

period 36 step 1 
  save head
  save budget

period 37 step 1 
  save head
  save budget

period 38 step 1 
  save head
  save budget

period 39 step 1 
  save head
  save budget

period 40 step 1 
  save head
  save budget

period 41 step 1 
  save head
  save budget

period 42 step 1 
  save head
  save budget

period 43 step 1 
  save head
  save budget

period 44 step 1 
  save head
  save budget

period 45 step 1 
  save head
  save budget

period 46 step 1 
  save head
  save budget

period 47 step 1 
  save head
  save budget

period 48 step 1 
  save head
  save budget

period 49 step 1 
  save head
  save budget

period 50 step 1 
  save head
  save budget

period 51 step 1 
  save head
  save budget

period 52 step 1 
  save head
  save budget

period 53 step 1 
  save head
  save budget

period 54 step 1 
  save head
  save budget

period 55 step 1 
  save head
  save budget

period 56 step 1 
  save head
  save budget

period 57 step 1 
  save head
  save budget

period 58 step 1 
  save head
  save budget

period 59 step 1 
  save head
  save budget

period 60 step 1 
  save head
  save budget

period 61 step 1 
  save head
  save budget

period 62 step 1 
  save head
  save budget

period 63 step 1 
  save head
  save budget

period 64 step 1 
  save head
  save budget

period 65 step 1 
  save head
  save budget

period 66 step 1 
  save head
  save budget

period 67 step 1 
  save head
  save budget

period 68 step 1 
  save head
  save budget

period 69 step 1 
  save head
  save budget

period 70 step 1 
  save head
  save budget

period 71 step 1 
  save head
  save budget

period 72 step 1 
  save head
  save budget

period 73 step 1 
  save head
  save budget

period 74 step 1 
  save head
  save budget

period 75 step 1 
  save head
  save budget

period 76 step 1 
  save head
  save budget

period 77 step 1 
  save head
  save budget

period 78 step 1 
  save head
  save budget

period 79 step 1 
  save head
  save budget

period 80 step 1 
  save head
  save budget

period 81 step 1 
  save head
  save budget

period 82 step 1 
  save head
  save budget

period 83 step 1 
  save head
  save budget

period 84 step 1 
  save head
  save budget

period 85 step 1 
  save head
  save budget

period 86 step 1 
  save head
  save budget

period 87 step 1 
  save head
  save budget

period 88 step 1 
  save head
  save budget

period 89 step 1 
  save head
  save budget

period 90 step 1 
  save head
  save budget

period 91 step 1 
  save head
  save budget

period 92 step 1 
  save head
  save budget

period 93 step 1 
  save head
  save budget

period 94 step 1 
  save head
  save budget

period 95 step 1 
  save head
  save budget

period 96 step 1 
  save head
  save budget

period 97 step 1 
  save head
  save budget

period 98 step 1 
  save head
  save budget

period 99 step 1 
  save head
  save budget

period 100 step 1 
  save head
  save budget

period 101 step 1 
  save head
  save budget

period 102 step 1 
  save head
  save budget

period 103 step 1 
  save head
  save budget

period 104 step 1 
  save head
  save budget

period 105 step 1 
  save head
  save budget

period 106 step 1 
  save head
  save budget

period 107 step 1 
  save head
  save budget

period 108 step 1 
  save head
  save budget

period 109 step 1 
  save head
  save budget

period 110 step 1 
  save head
  save budget

period 111 step 1 
  save head
  save budget

period 112 step 1 
  save head
  save budget

period 113 step 1 
  save head
  save budget

period 114 step 1 
  save head
  save budget

period 115 step 1 
  save head
  save budget

period 116 step 1 
  save head
  save budget

period 117 step 1 
  save head
  save budget

period 118 step 1 
  save head
  save budget

period 119 step 1 
  save head
  save budget

period 120 step 1 
  save head
  save budget

period 121 step 1 
  save head
  save budget

period 122 step 1 
  save head
  save budget

period 123 step 1 
  save head
  save budget

period 124 step 1 
  save head
  save budget

period 125 step 1 
  save head
  save budget

period 126 step 1 
  save head
  save budget

period 127 step 1 
  save head
  save budget

period 128 step 1 
  save head
  save budget

period 129 step 1 
  save head
  save budget

period 130 step 1 
  save head
  save budget

period 131 step 1 
  save head
  save budget

period 132 step 1 
  save head
  save budget

period 133 step 1 
  save head
  save budget

period 134 step 1 
  save head
  save budget

period 135 step 1 
  save head
  save budget

period 136 step 1 
  save head
  save budget

period 137 step 1 
  save head
  save budget

period 138 step 1 
  save head
  save budget

period 139 step 1 
  save head
  save budget

period 140 step 1 
  save head
  save budget

period 141 step 1 
  save head
  save budget

period 142 step 1 
  save head
  save budget

period 143 step 1 
  save head
  save budget

period 144 step 1 
  save head
  save budget

period 145 step 1 
  save head
  save budget

period 146 step 1 
  save head
  save budget

period 147 step 1 
  save head
  save budget

period 148 step 1 
  save head
  save budget

period 149 step 1 
  save head
  save budget

period 150 step 1 
  save head
  save budget

period 151 step 1 
  save head
  save budget

period 152 step 1 
  save head
  save budget

period 153 step 1 
  save head
  save budget

period 154 step 1 
  save head
  save budget

period 155 step 1 
  save head
  save budget

period 156 step 1 
  save head
  save budget

period 157 step 1 
  save head
  save budget

period 158 step 1 
  save head
  save budget

period 159 step 1 
  save head
  save budget

period 160 step 1 
  save head
  save budget

period 161 step 1 
  save head
  save budget

period 162 step 1 
  save head
  save budget

period 163 step 1 
  save head
  save budget

period 164 step 1 
  save head
  save budget

period 165 step 1 
  save head
  save budget

period 166 step 1 
  save head
  save budget

period 167 step 1 
  save head
  save budget

period 168 step 1 
  save head
  save budget

period 169 step 1 
  save head
  save budget

period 170 step 1 
  save head
  save budget

period 171 step 1 
  save head
  save budget

period 172 step 1 
  save head
  save budget

period 173 step 1 
  save head
  save budget

period 174 step 1 
  save head
  save budget

period 175 step 1 
  save head
  save budget

