# CHD package for MODFLOW-NWT generated by Flopy 3.10.0
         2
         2         0 # stress period 1
         5         1         1         682.585         682.585
         5         1        47          672.55          672.55
         2         0 # stress period 2
         5         1         1         682.585         682.585
         5         1        47          672.55          672.55
         2         0 # stress period 3
         5         1         1         682.585         682.585
         5         1        47          672.55          672.55
         2         0 # stress period 4
         5         1         1         682.585         682.585
         5         1        47          672.55          672.55
         2         0 # stress period 5
         5         1         1         682.585         682.585
         5         1        47          672.55          672.55
         2         0 # stress period 6
         5         1         1         682.585         682.585
         5         1        47          672.55          672.55
         2         0 # stress period 7
         5         1         1         682.585         682.585
         5         1        47          672.55          672.55
         2         0 # stress period 8
         5         1         1         682.585         682.585
         5         1        47          672.55          672.55
         2         0 # stress period 9
         5         1         1         682.585         682.585
         5         1        47          672.55          672.55
         2         0 # stress period 10
         5         1         1         682.585         682.585
         5         1        47          672.55          672.55
         2         0 # stress period 11
         5         1         1         682.585         682.585
         5         1        47          672.55          672.55
         2         0 # stress period 12
         5         1         1         682.585         682.585
         5         1        47          672.55          672.55
         2         0 # stress period 13
         5         1         1         682.585         682.585
         5         1        47          672.55          672.55
         2         0 # stress period 14
         5         1         1         682.585         682.585
         5         1        47          672.55          672.55
         2         0 # stress period 15
         5         1         1         682.585         682.585
         5         1        47          672.55          672.55
         2         0 # stress period 16
         5         1         1         682.585         682.585
         5         1        47          672.55          672.55
         2         0 # stress period 17
         5         1         1         682.585         682.585
         5         1        47          672.55          672.55
         2         0 # stress period 18
         5         1         1         682.585         682.585
         5         1        47          672.55          672.55
         2         0 # stress period 19
         5         1         1         682.585         682.585
         5         1        47          672.55          672.55
         2         0 # stress period 20
         5         1         1         682.585         682.585
         5         1        47          672.55          672.55
         2         0 # stress period 21
         5         1         1         682.585         682.585
         5         1        47          672.55          672.55
         2         0 # stress period 22
         5         1         1         682.585         682.585
         5         1        47          672.55          672.55
         2         0 # stress period 23
         5         1         1         682.585         682.585
         5         1        47          672.55          672.55
         2         0 # stress period 24
         5         1         1         682.585         682.585
         5         1        47          672.55          672.55
         2         0 # stress period 25
         5         1         1         682.585         682.585
         5         1        47          672.55          672.55
         2         0 # stress period 26
         5         1         1         682.585         682.585
         5         1        47          672.55          672.55
         2         0 # stress period 27
         5         1         1         682.585         682.585
         5         1        47          672.55          672.55
         2         0 # stress period 28
         5         1         1         682.585         682.585
         5         1        47          672.55          672.55
         2         0 # stress period 29
         5         1         1         682.585         682.585
         5         1        47          672.55          672.55
         2         0 # stress period 30
         5         1         1         682.585         682.585
         5         1        47          672.55          672.55
         2         0 # stress period 31
         5         1         1         682.585         682.585
         5         1        47          672.55          672.55
         2         0 # stress period 32
         5         1         1         682.585         682.585
         5         1        47          672.55          672.55
         2         0 # stress period 33
         5         1         1         682.585         682.585
         5         1        47          672.55          672.55
         2         0 # stress period 34
         5         1         1         682.585         682.585
         5         1        47          672.55          672.55
         2         0 # stress period 35
         5         1         1         682.585         682.585
         5         1        47          672.55          672.55
         2         0 # stress period 36
         5         1         1         682.585         682.585
         5         1        47          672.55          672.55
         2         0 # stress period 37
         5         1         1         682.585         682.585
         5         1        47          672.55          672.55
         2         0 # stress period 38
         5         1         1         682.585         682.585
         5         1        47          672.55          672.55
         2         0 # stress period 39
         5         1         1         682.585         682.585
         5         1        47          672.55          672.55
         2         0 # stress period 40
         5         1         1         682.585         682.585
         5         1        47          672.55          672.55
         2         0 # stress period 41
         5         1         1         682.585         682.585
         5         1        47          672.55          672.55
         2         0 # stress period 42
         5         1         1         682.585         682.585
         5         1        47          672.55          672.55
         2         0 # stress period 43
         5         1         1         682.585         682.585
         5         1        47          672.55          672.55
         2         0 # stress period 44
         5         1         1         682.585         682.585
         5         1        47          672.55          672.55
         2         0 # stress period 45
         5         1         1         682.585         682.585
         5         1        47          672.55          672.55
         2         0 # stress period 46
         5         1         1         682.585         682.585
         5         1        47          672.55          672.55
         2         0 # stress period 47
         5         1         1         682.585         682.585
         5         1        47          672.55          672.55
         2         0 # stress period 48
         5         1         1         682.585         682.585
         5         1        47          672.55          672.55
         2         0 # stress period 49
         5         1         1         682.585         682.585
         5         1        47          672.55          672.55
         2         0 # stress period 50
         5         1         1         682.585         682.585
         5         1        47          672.55          672.55
         2         0 # stress period 51
         5         1         1         682.585         682.585
         5         1        47          672.55          672.55
         2         0 # stress period 52
         5         1         1         682.585         682.585
         5         1        47          672.55          672.55
         2         0 # stress period 53
         5         1         1         682.585         682.585
         5         1        47          672.55          672.55
         2         0 # stress period 54
         5         1         1         682.585         682.585
         5         1        47          672.55          672.55
         2         0 # stress period 55
         5         1         1         682.585         682.585
         5         1        47          672.55          672.55
         2         0 # stress period 56
         5         1         1         682.585         682.585
         5         1        47          672.55          672.55
         2         0 # stress period 57
         5         1         1         682.585         682.585
         5         1        47          672.55          672.55
         2         0 # stress period 58
         5         1         1         682.585         682.585
         5         1        47          672.55          672.55
         2         0 # stress period 59
         5         1         1         682.585         682.585
         5         1        47          672.55          672.55
         2         0 # stress period 60
         5         1         1         682.585         682.585
         5         1        47          672.55          672.55
         2         0 # stress period 61
         5         1         1         682.585         682.585
         5         1        47          672.55          672.55
         2         0 # stress period 62
         5         1         1         682.585         682.585
         5         1        47          672.55          672.55
         2         0 # stress period 63
         5         1         1         682.585         682.585
         5         1        47          672.55          672.55
         2         0 # stress period 64
         5         1         1         682.585         682.585
         5         1        47          672.55          672.55
         2         0 # stress period 65
         5         1         1         682.585         682.585
         5         1        47          672.55          672.55
         2         0 # stress period 66
         5         1         1         682.585         682.585
         5         1        47          672.55          672.55
         2         0 # stress period 67
         5         1         1         682.585         682.585
         5         1        47          672.55          672.55
         2         0 # stress period 68
         5         1         1         682.585         682.585
         5         1        47          672.55          672.55
         2         0 # stress period 69
         5         1         1         682.585         682.585
         5         1        47          672.55          672.55
         2         0 # stress period 70
         5         1         1         682.585         682.585
         5         1        47          672.55          672.55
         2         0 # stress period 71
         5         1         1         682.585         682.585
         5         1        47          672.55          672.55
         2         0 # stress period 72
         5         1         1         682.585         682.585
         5         1        47          672.55          672.55
         2         0 # stress period 73
         5         1         1         682.585         682.585
         5         1        47          672.55          672.55
         2         0 # stress period 74
         5         1         1         682.585         682.585
         5         1        47          672.55          672.55
         2         0 # stress period 75
         5         1         1         682.585         682.585
         5         1        47          672.55          672.55
         2         0 # stress period 76
         5         1         1         682.585         682.585
         5         1        47          672.55          672.55
         2         0 # stress period 77
         5         1         1         682.585         682.585
         5         1        47          672.55          672.55
         2         0 # stress period 78
         5         1         1         682.585         682.585
         5         1        47          672.55          672.55
         2         0 # stress period 79
         5         1         1         682.585         682.585
         5         1        47          672.55          672.55
         2         0 # stress period 80
         5         1         1         682.585         682.585
         5         1        47          672.55          672.55
         2         0 # stress period 81
         5         1         1         682.585         682.585
         5         1        47          672.55          672.55
         2         0 # stress period 82
         5         1         1         682.585         682.585
         5         1        47          672.55          672.55
         2         0 # stress period 83
         5         1         1         682.585         682.585
         5         1        47          672.55          672.55
         2         0 # stress period 84
         5         1         1         682.585         682.585
         5         1        47          672.55          672.55
         2         0 # stress period 85
         5         1         1         682.585         682.585
         5         1        47          672.55          672.55
         2         0 # stress period 86
         5         1         1         682.585         682.585
         5         1        47          672.55          672.55
         2         0 # stress period 87
         5         1         1         682.585         682.585
         5         1        47          672.55          672.55
         2         0 # stress period 88
         5         1         1         682.585         682.585
         5         1        47          672.55          672.55
         2         0 # stress period 89
         5         1         1         682.585         682.585
         5         1        47          672.55          672.55
         2         0 # stress period 90
         5         1         1         682.585         682.585
         5         1        47          672.55          672.55
         2         0 # stress period 91
         5         1         1         682.585         682.585
         5         1        47          672.55          672.55
         2         0 # stress period 92
         5         1         1         682.585         682.585
         5         1        47          672.55          672.55
         2         0 # stress period 93
         5         1         1         682.585         682.585
         5         1        47          672.55          672.55
         2         0 # stress period 94
         5         1         1         682.585         682.585
         5         1        47          672.55          672.55
         2         0 # stress period 95
         5         1         1         682.585         682.585
         5         1        47          672.55          672.55
         2         0 # stress period 96
         5         1         1         682.585         682.585
         5         1        47          672.55          672.55
         2         0 # stress period 97
         5         1         1         682.585         682.585
         5         1        47          672.55          672.55
         2         0 # stress period 98
         5         1         1         682.585         682.585
         5         1        47          672.55          672.55
         2         0 # stress period 99
         5         1         1         682.585         682.585
         5         1        47          672.55          672.55
         2         0 # stress period 100
         5         1         1         682.585         682.585
         5         1        47          672.55          672.55
         2         0 # stress period 101
         5         1         1         682.585         682.585
         5         1        47          672.55          672.55
         2         0 # stress period 102
         5         1         1         682.585         682.585
         5         1        47          672.55          672.55
         2         0 # stress period 103
         5         1         1         682.585         682.585
         5         1        47          672.55          672.55
         2         0 # stress period 104
         5         1         1         682.585         682.585
         5         1        47          672.55          672.55
         2         0 # stress period 105
         5         1         1         682.585         682.585
         5         1        47          672.55          672.55
         2         0 # stress period 106
         5         1         1         682.585         682.585
         5         1        47          672.55          672.55
         2         0 # stress period 107
         5         1         1         682.585         682.585
         5         1        47          672.55          672.55
         2         0 # stress period 108
         5         1         1         682.585         682.585
         5         1        47          672.55          672.55
         2         0 # stress period 109
         5         1         1         682.585         682.585
         5         1        47          672.55          672.55
         2         0 # stress period 110
         5         1         1         682.585         682.585
         5         1        47          672.55          672.55
         2         0 # stress period 111
         5         1         1         682.585         682.585
         5         1        47          672.55          672.55
         2         0 # stress period 112
         5         1         1         682.585         682.585
         5         1        47          672.55          672.55
         2         0 # stress period 113
         5         1         1         682.585         682.585
         5         1        47          672.55          672.55
         2         0 # stress period 114
         5         1         1         682.585         682.585
         5         1        47          672.55          672.55
         2         0 # stress period 115
         5         1         1         682.585         682.585
         5         1        47          672.55          672.55
         2         0 # stress period 116
         5         1         1         682.585         682.585
         5         1        47          672.55          672.55
         2         0 # stress period 117
         5         1         1         682.585         682.585
         5         1        47          672.55          672.55
         2         0 # stress period 118
         5         1         1         682.585         682.585
         5         1        47          672.55          672.55
         2         0 # stress period 119
         5         1         1         682.585         682.585
         5         1        47          672.55          672.55
         2         0 # stress period 120
         5         1         1         682.585         682.585
         5         1        47          672.55          672.55
         2         0 # stress period 121
         5         1         1         682.585         682.585
         5         1        47          672.55          672.55
         2         0 # stress period 122
         5         1         1         682.585         682.585
         5         1        47          672.55          672.55
         2         0 # stress period 123
         5         1         1         682.585         682.585
         5         1        47          672.55          672.55
         2         0 # stress period 124
         5         1         1         682.585         682.585
         5         1        47          672.55          672.55
         2         0 # stress period 125
         5         1         1         682.585         682.585
         5         1        47          672.55          672.55
         2         0 # stress period 126
         5         1         1         682.585         682.585
         5         1        47          672.55          672.55
         2         0 # stress period 127
         5         1         1         682.585         682.585
         5         1        47          672.55          672.55
         2         0 # stress period 128
         5         1         1         682.585         682.585
         5         1        47          672.55          672.55
         2         0 # stress period 129
         5         1         1         682.585         682.585
         5         1        47          672.55          672.55
         2         0 # stress period 130
         5         1         1         682.585         682.585
         5         1        47          672.55          672.55
         2         0 # stress period 131
         5         1         1         682.585         682.585
         5         1        47          672.55          672.55
         2         0 # stress period 132
         5         1         1         682.585         682.585
         5         1        47          672.55          672.55
         2         0 # stress period 133
         5         1         1         682.585         682.585
         5         1        47          672.55          672.55
         2         0 # stress period 134
         5         1         1         682.585         682.585
         5         1        47          672.55          672.55
         2         0 # stress period 135
         5         1         1         682.585         682.585
         5         1        47          672.55          672.55
         2         0 # stress period 136
         5         1         1         682.585         682.585
         5         1        47          672.55          672.55
         2         0 # stress period 137
         5         1         1         682.585         682.585
         5         1        47          672.55          672.55
         2         0 # stress period 138
         5         1         1         682.585         682.585
         5         1        47          672.55          672.55
         2         0 # stress period 139
         5         1         1         682.585         682.585
         5         1        47          672.55          672.55
         2         0 # stress period 140
         5         1         1         682.585         682.585
         5         1        47          672.55          672.55
         2         0 # stress period 141
         5         1         1         682.585         682.585
         5         1        47          672.55          672.55
         2         0 # stress period 142
         5         1         1         682.585         682.585
         5         1        47          672.55          672.55
         2         0 # stress period 143
         5         1         1         682.585         682.585
         5         1        47          672.55          672.55
         2         0 # stress period 144
         5         1         1         682.585         682.585
         5         1        47          672.55          672.55
         2         0 # stress period 145
         5         1         1         682.585         682.585
         5         1        47          672.55          672.55
         2         0 # stress period 146
         5         1         1         682.585         682.585
         5         1        47          672.55          672.55
         2         0 # stress period 147
         5         1         1         682.585         682.585
         5         1        47          672.55          672.55
         2         0 # stress period 148
         5         1         1         682.585         682.585
         5         1        47          672.55          672.55
         2         0 # stress period 149
         5         1         1         682.585         682.585
         5         1        47          672.55          672.55
         2         0 # stress period 150
         5         1         1         682.585         682.585
         5         1        47          672.55          672.55
         2         0 # stress period 151
         5         1         1         682.585         682.585
         5         1        47          672.55          672.55
         2         0 # stress period 152
         5         1         1         682.585         682.585
         5         1        47          672.55          672.55
         2         0 # stress period 153
         5         1         1         682.585         682.585
         5         1        47          672.55          672.55
         2         0 # stress period 154
         5         1         1         682.585         682.585
         5         1        47          672.55          672.55
         2         0 # stress period 155
         5         1         1         682.585         682.585
         5         1        47          672.55          672.55
         2         0 # stress period 156
         5         1         1         682.585         682.585
         5         1        47          672.55          672.55
         2         0 # stress period 157
         5         1         1         682.585         682.585
         5         1        47          672.55          672.55
         2         0 # stress period 158
         5         1         1         682.585         682.585
         5         1        47          672.55          672.55
         2         0 # stress period 159
         5         1         1         682.585         682.585
         5         1        47          672.55          672.55
         2         0 # stress period 160
         5         1         1         682.585         682.585
         5         1        47          672.55          672.55
         2         0 # stress period 161
         5         1         1         682.585         682.585
         5         1        47          672.55          672.55
         2         0 # stress period 162
         5         1         1         682.585         682.585
         5         1        47          672.55          672.55
         2         0 # stress period 163
         5         1         1         682.585         682.585
         5         1        47          672.55          672.55
         2         0 # stress period 164
         5         1         1         682.585         682.585
         5         1        47          672.55          672.55
         2         0 # stress period 165
         5         1         1         682.585         682.585
         5         1        47          672.55          672.55
         2         0 # stress period 166
         5         1         1         682.585         682.585
         5         1        47          672.55          672.55
         2         0 # stress period 167
         5         1         1         682.585         682.585
         5         1        47          672.55          672.55
         2         0 # stress period 168
         5         1         1         682.585         682.585
         5         1        47          672.55          672.55
         2         0 # stress period 169
         5         1         1         682.585         682.585
         5         1        47          672.55          672.55
         2         0 # stress period 170
         5         1         1         682.585         682.585
         5         1        47          672.55          672.55
         2         0 # stress period 171
         5         1         1         682.585         682.585
         5         1        47          672.55          672.55
         2         0 # stress period 172
         5         1         1         682.585         682.585
         5         1        47          672.55          672.55
         2         0 # stress period 173
         5         1         1         682.585         682.585
         5         1        47          672.55          672.55
         2         0 # stress period 174
         5         1         1         682.585         682.585
         5         1        47          672.55          672.55
         2         0 # stress period 175
         5         1         1         682.585         682.585
         5         1        47          672.55          672.55
