# CHD package for MODFLOW-NWT generated by Flopy 3.10.0
         2
         2         0 # stress period 1
         5         1         1         682.585         682.585
         5         1        47          672.55          672.55
         2         0 # stress period 2
         5         1         1         682.585         682.585
         5         1        47          672.55          672.55
         2         0 # stress period 3
         5         1         1         682.585         682.585
         5         1        47          672.55          672.55
