# RCH package for MODFLOW-NWT generated by Flopy 3.10.0
         3         0
         1        -1 # Stress period 1
CONSTANT    0.000000E+00                           #rech_1                        
         1        -1 # Stress period 2
CONSTANT    5.000000E-02                           #rech_2                        
         1        -1 # Stress period 3
CONSTANT    0.000000E+00                           #rech_3                        
