# BAS6 package for MODFLOW-NWT generated by Flopy 3.10.0
FREE
INTERNAL               1    (47I10) -1 #ibound layer 1                
         1         1         1         1         1         1         1         1         1         1         1         1         1         1         1         1         1         1         1         1         1         1         1         1         1         1         1         1         1         1         1         1         1         1         1         1         1         1         1         1         1         1         1         1         1         1         1
INTERNAL               1    (47I10) -1 #ibound layer 2                
         1         1         1         1         1         1         1         1         1         1         1         1         1         1         1         1         1         1         1         1         1         1         1         1         1         1         1         1         1         1         1         1         1         1         1         1         1         1         1         1         1         1         1         1         1         1         1
INTERNAL               1    (47I10) -1 #ibound layer 3                
         1         1         1         1         1         1         1         1         1         1         1         1         1         1         1         1         1         1         1         1         1         1         1         1         1         1         1         1         1         1         1         1         1         1         1         1         1         1         1         1         1         1         1         1         1         1         1
INTERNAL               1    (47I10) -1 #ibound layer 4                
         1         1         1         1         1         1         1         1         1         1         1         1         1         1         1         1         1         1         1         1         1         1         1         1         1         1         1         1         1         1         1         1         1         1         1         1         1         1         1         1         1         1         1         1         1         1         1
INTERNAL               1    (47I10) -1 #ibound layer 5                
         1         1         1         1         1         1         1         1         1         1         1         1         1         1         1         1         1         1         1         1         1         1         1         1         1         1         1         1         1         1         1         1         1         1         1         1         1         1         1         1         1         1         1         1         1         1         1
   -999.99
INTERNAL               1  (47E15.6) -1 #strt layer 1                  
   6.850850E+02   6.849400E+02   6.847750E+02   6.846200E+02   6.845150E+02   6.844300E+02   6.843600E+02   6.842700E+02   6.841600E+02   6.840650E+02   6.839550E+02   6.837850E+02   6.836150E+02   6.834750E+02   6.833800E+02   6.832300E+02   6.830250E+02   6.828550E+02   6.826500E+02   6.824250E+02   6.821750E+02   6.818850E+02   6.816400E+02   6.814150E+02   6.811800E+02   6.808950E+02   6.805650E+02   6.802250E+02   6.798950E+02   6.795850E+02   6.792800E+02   6.790000E+02   6.787350E+02   6.784400E+02   6.781300E+02   6.778700E+02   6.775800E+02   6.772550E+02   6.769650E+02   6.767000E+02   6.764600E+02   6.762350E+02   6.759900E+02   6.757200E+02   6.754450E+02   6.752350E+02   6.750500E+02
INTERNAL               1  (47E15.6) -1 #strt layer 2                  
   6.850850E+02   6.849400E+02   6.847750E+02   6.846200E+02   6.845150E+02   6.844300E+02   6.843600E+02   6.842700E+02   6.841600E+02   6.840650E+02   6.839550E+02   6.837850E+02   6.836150E+02   6.834750E+02   6.833800E+02   6.832300E+02   6.830250E+02   6.828550E+02   6.826500E+02   6.824250E+02   6.821750E+02   6.818850E+02   6.816400E+02   6.814150E+02   6.811800E+02   6.808950E+02   6.805650E+02   6.802250E+02   6.798950E+02   6.795850E+02   6.792800E+02   6.790000E+02   6.787350E+02   6.784400E+02   6.781300E+02   6.778700E+02   6.775800E+02   6.772550E+02   6.769650E+02   6.767000E+02   6.764600E+02   6.762350E+02   6.759900E+02   6.757200E+02   6.754450E+02   6.752350E+02   6.750500E+02
INTERNAL               1  (47E15.6) -1 #strt layer 3                  
   6.850850E+02   6.849400E+02   6.847750E+02   6.846200E+02   6.845150E+02   6.844300E+02   6.843600E+02   6.842700E+02   6.841600E+02   6.840650E+02   6.839550E+02   6.837850E+02   6.836150E+02   6.834750E+02   6.833800E+02   6.832300E+02   6.830250E+02   6.828550E+02   6.826500E+02   6.824250E+02   6.821750E+02   6.818850E+02   6.816400E+02   6.814150E+02   6.811800E+02   6.808950E+02   6.805650E+02   6.802250E+02   6.798950E+02   6.795850E+02   6.792800E+02   6.790000E+02   6.787350E+02   6.784400E+02   6.781300E+02   6.778700E+02   6.775800E+02   6.772550E+02   6.769650E+02   6.767000E+02   6.764600E+02   6.762350E+02   6.759900E+02   6.757200E+02   6.754450E+02   6.752350E+02   6.750500E+02
INTERNAL               1  (47E15.6) -1 #strt layer 4                  
   6.850850E+02   6.849400E+02   6.847750E+02   6.846200E+02   6.845150E+02   6.844300E+02   6.843600E+02   6.842700E+02   6.841600E+02   6.840650E+02   6.839550E+02   6.837850E+02   6.836150E+02   6.834750E+02   6.833800E+02   6.832300E+02   6.830250E+02   6.828550E+02   6.826500E+02   6.824250E+02   6.821750E+02   6.818850E+02   6.816400E+02   6.814150E+02   6.811800E+02   6.808950E+02   6.805650E+02   6.802250E+02   6.798950E+02   6.795850E+02   6.792800E+02   6.790000E+02   6.787350E+02   6.784400E+02   6.781300E+02   6.778700E+02   6.775800E+02   6.772550E+02   6.769650E+02   6.767000E+02   6.764600E+02   6.762350E+02   6.759900E+02   6.757200E+02   6.754450E+02   6.752350E+02   6.750500E+02
INTERNAL               1  (47E15.6) -1 #strt layer 5                  
   6.850850E+02   6.849400E+02   6.847750E+02   6.846200E+02   6.845150E+02   6.844300E+02   6.843600E+02   6.842700E+02   6.841600E+02   6.840650E+02   6.839550E+02   6.837850E+02   6.836150E+02   6.834750E+02   6.833800E+02   6.832300E+02   6.830250E+02   6.828550E+02   6.826500E+02   6.824250E+02   6.821750E+02   6.818850E+02   6.816400E+02   6.814150E+02   6.811800E+02   6.808950E+02   6.805650E+02   6.802250E+02   6.798950E+02   6.795850E+02   6.792800E+02   6.790000E+02   6.787350E+02   6.784400E+02   6.781300E+02   6.778700E+02   6.775800E+02   6.772550E+02   6.769650E+02   6.767000E+02   6.764600E+02   6.762350E+02   6.759900E+02   6.757200E+02   6.754450E+02   6.752350E+02   6.750500E+02
